# MNW2 package for  MODFLOW-2005, generated by Flopy.
9 0 0
muni1 -1
            thiem 0 0 0 0
               7.5000003E-02 
               6.3130002E+00   -2.0027000E+01 242 164
muni2 -1
            thiem 0 0 0 0
               7.5000003E-02 
               1.0656000E+01   -2.1054001E+01 258 145
muni3 -1
            thiem 0 0 0 0
               7.5000003E-02 
               3.4660001E+00   -2.2993999E+01 248 158
muni4 -1
            thiem 0 0 0 0
               7.5000003E-02 
              -6.5330000E+00   -1.1533000E+01 253 158
muni5 -1
            thiem 0 0 0 0
               7.5000003E-02 
              -8.5730000E+00   -2.0813000E+01 195 208
muni6 -1
            thiem 0 0 0 0
               7.5000003E-02 
               1.5057000E+01   -1.8573000E+01 200 197
muni7 -1
            thiem 0 0 0 0
               7.5000003E-02 
              -6.9730000E+00   -3.2193001E+01 216 151
muni8 -1
            thiem 0 0 0 0
               7.5000003E-02 
              -3.8829999E+00   -2.8603001E+01 224 137
muni9 -1
            thiem 0 0 0 0
               7.5000003E-02 
               8.5699999E-01   -2.4393000E+01 239 113
9  Stress Period 1
muni1   -5.7870371E-04
muni2   -5.7870371E-04
muni3   -5.7870371E-04
muni4   -5.7870371E-04
muni5   -5.7870371E-04
muni6   -5.7870371E-04
muni7   -5.7870371E-04
muni8   -5.7870371E-04
muni9   -5.7870371E-04
