# Name file for MODFLOW-2005, generated by Flopy version 3.3.0.
#xll:0.0; yll:0.0; rotation:0.0; units:meters; lenuni:2; start_datetime:1-1-1970
LIST               2  idm_opt_run_125.list
DIS               11  idm_opt_run_125.dis
BAS6              13  idm_opt_run_125.bas
RCH               19  idm_opt_run_125.rch
LPF               15  idm_opt_run_125.lpf
GHB               23  idm_opt_run_125.ghb
WEL               20  idm_opt_run_125.wel
MNW2              34  idm_opt_run_125.mnw2
MNWI              58  idm_opt_run_125.mnwi
OC                14  idm_opt_run_125.oc
PCG               27  idm_opt_run_125.pcg
SWI2              29  idm_opt_run_125.swi2
DATA              36  idm_opt_run_125.bynd
DATA              35  idm_opt_run_125.0035.mnwobs
DATA(BINARY)      51  idm_opt_run_125.hds REPLACE
DATA(BINARY)      55  idm_opt_run_125.zta REPLACE
