# WEL package for  MODFLOW-2005, generated by Flopy.
       161         0 
       161         0 # stress period 1
         1       125       332   -5.751093e-06
         1       106       353   -5.751093e-06
         1       120       364   -5.751093e-06
         1       128       388   -5.751093e-06
         1       115       352   -5.751093e-06
         1       181       206   -5.751093e-06
         1       183       210   -5.751093e-06
         1       143       268   -5.751093e-06
         1       173       224   -5.751093e-06
         1       149       260   -5.751093e-06
         1       125       272   -5.751093e-06
         1       127       276   -5.751093e-06
         1       204       177   -5.751093e-06
         1       165       242   -5.751093e-06
         1       158       245   -5.751093e-06
         1       204       163   -5.751093e-06
         1       195       199   -5.751093e-06
         1       230       107   -5.751093e-06
         1       226       111   -5.751093e-06
         1       235       115   -5.751093e-06
         1       215       140   -5.751093e-06
         1       232        89   -5.751093e-06
         1       238       114   -5.751093e-06
         1       193       215   -5.751093e-06
         1       246       104   -5.751093e-06
         1       246       104   -5.751093e-06
         1       229        87   -5.751093e-06
         1       238       102   -5.751093e-06
         1       214       137   -5.751093e-06
         1       200       183   -5.751093e-06
         1       178       198   -5.751093e-06
         1       168       221   -5.751093e-06
         1       151       241   -5.751093e-06
         1       141       254   -5.751093e-06
         1       127       274   -5.751093e-06
         1       123       332   -5.751093e-06
         1       214       137   -5.751093e-06
         1       137       264   -5.751093e-06
         1       269       141   -5.751093e-06
         1       244       132   -5.751093e-06
         1       181       213   -5.751093e-06
         1       237       105   -5.751093e-06
         1       147       276   -5.751093e-06
         1       106       353   -5.751093e-06
         1       128       388   -5.751093e-06
         1       115       352   -5.751093e-06
         1       143       268   -5.751093e-06
         1       207       146   -5.751093e-06
         1       158       245   -5.751093e-06
         1       154       253   -5.751093e-06
         1       173       224   -5.751093e-06
         1       183       210   -5.751093e-06
         1       121       275   -5.751093e-06
         1       127       276   -5.751093e-06
         1       149       260   -5.751093e-06
         1       231        83   -5.751093e-06
         1       230        85   -5.751093e-06
         1       226       104   -5.751093e-06
         1       228       107   -5.751093e-06
         1       222       110   -5.751093e-06
         1       231       115   -5.751093e-06
         1       229       117   -5.751093e-06
         1       216       112   -5.751093e-06
         1       226       117   -5.751093e-06
         1       220       114   -5.751093e-06
         1       215       117   -5.751093e-06
         1       225       120   -5.751093e-06
         1       219       118   -5.751093e-06
         1       220       121   -5.751093e-06
         1       224       123   -5.751093e-06
         1       217       120   -5.751093e-06
         1       217       122   -5.751093e-06
         1       216       125   -5.751093e-06
         1       223       128   -5.751093e-06
         1       216       127   -5.751093e-06
         1       211       126   -5.751093e-06
         1       221       131   -5.751093e-06
         1       218       132   -5.751093e-06
         1       218       135   -5.751093e-06
         1       216       138   -5.751093e-06
         1       209       142   -5.751093e-06
         1       215       145   -5.751093e-06
         1       214       148   -5.751093e-06
         1       211       149   -5.751093e-06
         1       208       149   -5.751093e-06
         1       211       151   -5.751093e-06
         1       207       152   -5.751093e-06
         1       213       154   -5.751093e-06
         1       212       156   -5.751093e-06
         1       213       160   -5.751093e-06
         1       215       163   -5.751093e-06
         1       203       159   -5.751093e-06
         1       210       163   -5.751093e-06
         1       203       162   -5.751093e-06
         1       197       161   -5.751093e-06
         1       208       169   -5.751093e-06
         1       206       169   -5.751093e-06
         1       202       166   -5.751093e-06
         1       201       169   -5.751093e-06
         1       214       174   -5.751093e-06
         1       195       168   -5.751093e-06
         1       211       173   -5.751093e-06
         1       205       171   -5.751093e-06
         1       201       174   -5.751093e-06
         1       203       177   -5.751093e-06
         1       199       177   -5.751093e-06
         1       198       178   -5.751093e-06
         1       206       183   -5.751093e-06
         1       197       181   -5.751093e-06
         1       203       185   -5.751093e-06
         1       192       181   -5.751093e-06
         1       203       188   -5.751093e-06
         1       200       186   -5.751093e-06
         1       195       187   -5.751093e-06
         1       198       189   -5.751093e-06
         1       185       187   -5.751093e-06
         1       202       194   -5.751093e-06
         1       199       207   -5.751093e-06
         1       226       109   -5.751093e-06
         1       224       118   -5.751093e-06
         1       222       124   -5.751093e-06
         1       215       129   -5.751093e-06
         1       213       132   -5.751093e-06
         1       216       140   -5.751093e-06
         1       206       154   -5.751093e-06
         1       204       145   -5.751093e-06
         1       208       165   -5.751093e-06
         1       206       166   -5.751093e-06
         1       205       162   -5.751093e-06
         1       203       174   -5.751093e-06
         1       206       181   -5.751093e-06
         1       198       177   -5.751093e-06
         1       198       191   -5.751093e-06
         1       196       196   -5.751093e-06
         1       201       190   -5.751093e-06
         1       197       200   -5.751093e-06
         1       195       201   -5.751093e-06
         1       194       199   -5.751093e-06
         1       192       197   -5.751093e-06
         1       192       194   -5.751093e-06
         1       191       202   -5.751093e-06
         1       190       199   -5.751093e-06
         1       187       199   -5.751093e-06
         1       188       201   -5.751093e-06
         1       182       194   -5.751093e-06
         1       264       138   -5.751093e-06
         1       275       151   -5.751093e-06
         1       267       141   -5.751093e-06
         1       264       157   -5.751093e-06
         1       267       159   -5.751093e-06
         1       278       146   -5.751093e-06
         1       272       146   -5.751093e-06
         1       271       147   -5.751093e-06
         1       262       136   -5.751093e-06
         1       198       200   -5.751093e-06
         1       199       195   -5.751093e-06
         1       213       148   -5.751093e-06
         1       212       153   -5.751093e-06
         1       234       110   -5.751093e-06
         1       259        78   -5.751093e-06
         1       138       269   -5.751093e-06
