# DIS package for  MODFLOW-2005, generated by Flopy.
         1       350       483         1         1         2
  0
CONSTANT    2.000000E+01                           #delr                          
CONSTANT    2.000000E+01                           #delc                          
CONSTANT    1.000000E+02                           #model_top                     
CONSTANT   -3.000000E+02                           #botm layer 1                  
6311520256.000000          2435  1.000000  TR 
