# OC package for  MODFLOW-2005, generated by Flopy.
HEAD PRINT FORMAT   0
HEAD SAVE UNIT    51
DRAWDOWN PRINT FORMAT   0
COMPACT BUDGET AUX

period 1 step 1 
  save head

period 1 step 31 
  save head

period 1 step 61 
  save head

period 1 step 91 
  save head

period 1 step 121 
  save head

period 1 step 151 
  save head

period 1 step 181 
  save head

period 1 step 211 
  save head

period 1 step 241 
  save head

period 1 step 271 
  save head

period 1 step 301 
  save head

period 1 step 331 
  save head

period 1 step 361 
  save head

period 1 step 391 
  save head

period 1 step 421 
  save head

period 1 step 451 
  save head

period 1 step 481 
  save head

period 1 step 511 
  save head

period 1 step 541 
  save head

period 1 step 571 
  save head

period 1 step 601 
  save head

period 1 step 631 
  save head

period 1 step 661 
  save head

period 1 step 691 
  save head

period 1 step 721 
  save head

period 1 step 751 
  save head

period 1 step 781 
  save head

period 1 step 811 
  save head

period 1 step 841 
  save head

period 1 step 871 
  save head

period 1 step 901 
  save head

period 1 step 931 
  save head

period 1 step 961 
  save head

period 1 step 991 
  save head

period 1 step 1021 
  save head

period 1 step 1051 
  save head

period 1 step 1081 
  save head

period 1 step 1111 
  save head

period 1 step 1141 
  save head

period 1 step 1171 
  save head

period 1 step 1201 
  save head

period 1 step 1231 
  save head

period 1 step 1261 
  save head

period 1 step 1291 
  save head

period 1 step 1321 
  save head

period 1 step 1351 
  save head

period 1 step 1381 
  save head

period 1 step 1411 
  save head

period 1 step 1441 
  save head

period 1 step 1471 
  save head

period 1 step 1501 
  save head

period 1 step 1531 
  save head

period 1 step 1561 
  save head

period 1 step 1591 
  save head

period 1 step 1621 
  save head

period 1 step 1651 
  save head

period 1 step 1681 
  save head

period 1 step 1711 
  save head

period 1 step 1741 
  save head

period 1 step 1771 
  save head

period 1 step 1801 
  save head

period 1 step 1831 
  save head

period 1 step 1861 
  save head

period 1 step 1891 
  save head

period 1 step 1921 
  save head

period 1 step 1951 
  save head

period 1 step 1981 
  save head

period 1 step 2011 
  save head

period 1 step 2041 
  save head

period 1 step 2071 
  save head

period 1 step 2101 
  save head

period 1 step 2131 
  save head

period 1 step 2161 
  save head

period 1 step 2191 
  save head

period 1 step 2221 
  save head

period 1 step 2251 
  save head

period 1 step 2281 
  save head

period 1 step 2311 
  save head

period 1 step 2341 
  save head

period 1 step 2371 
  save head

period 1 step 2401 
  save head

period 1 step 2431 
  save head

