# LPF package for  MODFLOW-2005, generated by Flopy.
         0    -1E+30         0  
         1
         0
   1.000000E+00
         0
         0
INTERNAL               1 (483E15.6) -1 #hk layer 1                    
            NAN            NAN            NAN            NAN            NAN            NAN            NAN            NAN            NAN            NAN            NAN            NAN            NAN            NAN            NAN            NAN            NAN            NAN            NAN            NAN            NAN            NAN            NAN            NAN            NAN            NAN            NAN            NAN            NAN            NAN            NAN            NAN            NAN            NAN            NAN            NAN            NAN            NAN            NAN            NAN            NAN            NAN            NAN            NAN            NAN            NAN            NAN            NAN            NAN            NAN            NAN            NAN            NAN            NAN            NAN            NAN            NAN            NAN            NAN            NAN            NAN            NAN            NAN            NAN            NAN            NAN            NAN            NAN            NAN            NAN            NAN            NAN            NAN            NAN            NAN            NAN            NAN            NAN            NAN            NAN            NAN            NAN            NAN            NAN            NAN            NAN            NAN            NAN            NAN            NAN            NAN            NAN            NAN            NAN            NAN            NAN            NAN            NAN            NAN            NAN            NAN            NAN            NAN            NAN            NAN            NAN            NAN            NAN            NAN            NAN            NAN            NAN            NAN            NAN            NAN            NAN            NAN            NAN            NAN            NAN            NAN            NAN            NAN            NAN            NAN            NAN            NAN            NAN            NAN            NAN            NAN            NAN            NAN            NAN            NAN            NAN            NAN            NAN            NAN            NAN            NAN            NAN            NAN            NAN            NAN            NAN            NAN            NAN            NAN            NAN            NAN            NAN            NAN            NAN            NAN            NAN            NAN            NAN            NAN            NAN            NAN            NAN            NAN            NAN            NAN            NAN            NAN            NAN            NAN            NAN            NAN            NAN            NAN            NAN            NAN            NAN            NAN            NAN            NAN            NAN            NAN            NAN            NAN            NAN            NAN            NAN            NAN            NAN            NAN            NAN            NAN            NAN            NAN            NAN            NAN            NAN            NAN            NAN            NAN            NAN            NAN            NAN            NAN            NAN            NAN            NAN            NAN            NAN            NAN            NAN            NAN            NAN            NAN            NAN            NAN            NAN            NAN            NAN            NAN            NAN            NAN            NAN            NAN            NAN            NAN            NAN            NAN            NAN            NAN            NAN            NAN            NAN            NAN            NAN            NAN            NAN            NAN            NAN            NAN            NAN            NAN            NAN            NAN            NAN            NAN            NAN            NAN            NAN            NAN            NAN            NAN            NAN            NAN            NAN            NAN            NAN            NAN            NAN            NAN            NAN            NAN            NAN            NAN   1.643376E-04   1.643480E-04   1.643580E-04   1.643675E-04   1.643766E-04   1.643853E-04   1.643937E-04   1.644018E-04   1.644097E-04   1.644173E-04   1.644247E-04   1.644320E-04   1.644391E-04   1.644462E-04   1.644532E-04   1.644602E-04   1.644673E-04   1.644743E-04   1.644815E-04   1.644887E-04   1.644961E-04   1.645037E-04   1.645114E-04   1.645194E-04   1.622086E-04   1.622124E-04   1.622164E-04   1.622208E-04   1.622254E-04   1.622304E-04   1.622357E-04   1.622413E-04   1.622473E-04   1.622536E-04   1.622603E-04   1.622673E-04   1.622746E-04   1.622822E-04   1.622902E-04   1.622985E-04   1.623070E-04   1.623159E-04   1.623250E-04   1.623343E-04   1.623438E-04   1.623536E-04   1.623634E-04   1.623734E-04   1.623836E-04   1.623937E-04   1.624039E-04   1.624141E-04   1.624243E-04   1.624344E-04   1.624443E-04   1.624541E-04   1.624637E-04   1.624730E-04   1.624820E-04   1.624907E-04   1.624990E-04   1.625068E-04   1.625142E-04   1.625210E-04   1.625273E-04   1.625329E-04   1.625379E-04   1.625422E-04   1.625457E-04   1.625484E-04   1.625503E-04   1.625513E-04   1.625513E-04   1.625504E-04   1.625485E-04   1.625456E-04   1.625416E-04   1.625365E-04   1.625303E-04   1.625229E-04   1.625143E-04   1.625045E-04   1.624934E-04   1.624811E-04   1.624675E-04   1.624527E-04   1.624365E-04   1.624190E-04   1.624001E-04   1.623799E-04   1.623584E-04   1.623354E-04   1.735831E-04   1.734981E-04   1.734347E-04   1.733965E-04   1.734247E-04   1.734682E-04   1.734369E-04   1.734044E-04   1.733706E-04   1.733355E-04   1.732754E-04   1.731865E-04   1.731478E-04   1.731079E-04   1.730668E-04   1.730246E-04   1.729703E-04   1.729131E-04   1.728913E-04   1.728439E-04   1.727953E-04   1.727359E-04   1.726591E-04   1.726211E-04   1.725854E-04   1.725193E-04   1.724917E-04   1.724142E-04   1.723104E-04   1.722793E-04   1.722467E-04   1.721318E-04   1.720599E-04   1.720339E-04   1.719914E-04   1.719175E-04   1.718432E-04   1.717214E-04   1.716649E-04   1.715889E-04   1.716006E-04   1.715374E-04   1.714513E-04   1.713637E-04   1.713257E-04   1.711896E-04   1.710777E-04   1.709907E-04   1.708540E-04   1.707179E-04   1.706516E-04   1.707523E-04   1.708467E-04   1.708052E-04   1.707290E-04   1.706509E-04   1.705984E-04   1.704844E-04   1.703658E-04   1.703254E-04   1.702999E-04   1.702329E-04   1.702159E-04   1.701637E-04   1.701235E-04   1.700607E-04   1.699961E-04   1.699316E-04   1.698674E-04   1.698034E-04   1.697387E-04   1.696521E-04   1.695530E-04   1.695000E-04   1.693998E-04   1.693118E-04   1.692271E-04   1.691157E-04   1.690522E-04   1.690023E-04   1.689547E-04   1.688574E-04   1.687826E-04   1.687688E-04   1.687830E-04   1.687875E-04   1.687562E-04   1.686976E-04   1.686394E-04   1.686149E-04   1.571332E-04   1.570742E-04   1.570156E-04   1.569575E-04   1.568997E-04   1.568424E-04   1.567856E-04   1.567291E-04   1.566731E-04   1.566176E-04   1.565624E-04   1.565078E-04   1.564535E-04   1.563998E-04   1.563464E-04   1.562936E-04   1.562411E-04   1.561892E-04   1.561377E-04   1.560866E-04   1.560360E-04   1.559859E-04   1.559362E-04   1.558870E-04   1.558382E-04   1.557899E-04   1.557420E-04   1.556946E-04   1.556476E-04   1.556012E-04   1.555551E-04   1.555095E-04   1.554643E-04   1.554196E-04   1.553754E-04   1.553315E-04   1.552881E-04   1.552452E-04
            NAN            NAN            NAN            NAN            NAN            NAN            NAN            NAN            NAN            NAN            NAN            NAN            NAN            NAN            NAN            NAN            NAN            NAN            NAN            NAN            NAN            NAN            NAN            NAN            NAN            NAN            NAN            NAN            NAN            NAN            NAN            NAN            NAN            NAN            NAN            NAN            NAN            NAN            NAN            NAN            NAN            NAN            NAN            NAN            NAN            NAN            NAN            NAN            NAN            NAN            NAN            NAN            NAN            NAN            NAN            NAN            NAN            NAN            NAN            NAN            NAN            NAN            NAN            NAN            NAN            NAN            NAN            NAN            NAN            NAN            NAN            NAN            NAN            NAN            NAN            NAN            NAN            NAN            NAN            NAN            NAN            NAN            NAN            NAN            NAN            NAN            NAN            NAN            NAN            NAN            NAN            NAN            NAN            NAN            NAN            NAN            NAN            NAN            NAN            NAN            NAN            NAN            NAN            NAN            NAN            NAN            NAN            NAN            NAN            NAN            NAN            NAN            NAN            NAN            NAN            NAN            NAN            NAN            NAN            NAN            NAN            NAN            NAN            NAN            NAN            NAN            NAN            NAN            NAN            NAN            NAN            NAN            NAN            NAN            NAN            NAN            NAN            NAN            NAN            NAN            NAN            NAN            NAN            NAN            NAN            NAN            NAN            NAN            NAN            NAN            NAN            NAN            NAN            NAN            NAN            NAN            NAN            NAN            NAN            NAN            NAN            NAN            NAN            NAN            NAN            NAN            NAN            NAN            NAN            NAN            NAN            NAN            NAN            NAN            NAN            NAN            NAN            NAN            NAN            NAN            NAN            NAN            NAN            NAN            NAN            NAN            NAN            NAN            NAN            NAN            NAN            NAN            NAN            NAN            NAN            NAN            NAN            NAN            NAN            NAN            NAN            NAN            NAN            NAN            NAN            NAN            NAN            NAN            NAN            NAN            NAN            NAN            NAN            NAN            NAN            NAN            NAN            NAN            NAN            NAN            NAN            NAN            NAN            NAN            NAN            NAN            NAN            NAN            NAN            NAN            NAN            NAN            NAN            NAN            NAN            NAN            NAN            NAN            NAN            NAN            NAN            NAN            NAN            NAN            NAN            NAN            NAN            NAN            NAN            NAN            NAN            NAN            NAN            NAN            NAN            NAN            NAN            NAN            NAN            NAN            NAN            NAN   1.644363E-04   1.644469E-04   1.644569E-04   1.644665E-04   1.644757E-04   1.644844E-04   1.644928E-04   1.645008E-04   1.645085E-04   1.645159E-04   1.645231E-04   1.645301E-04   1.645370E-04   1.645437E-04   1.645504E-04   1.645570E-04   1.645637E-04   1.645703E-04   1.645770E-04   1.645838E-04   1.645908E-04   1.645979E-04   1.646051E-04   1.646126E-04   1.646204E-04   1.623297E-04   1.623333E-04   1.623371E-04   1.623414E-04   1.623460E-04   1.623509E-04   1.623562E-04   1.623618E-04   1.623678E-04   1.623742E-04   1.623809E-04   1.623881E-04   1.623955E-04   1.624034E-04   1.624116E-04   1.624202E-04   1.624290E-04   1.624382E-04   1.624477E-04   1.624574E-04   1.624674E-04   1.624775E-04   1.624879E-04   1.624985E-04   1.625091E-04   1.625199E-04   1.625306E-04   1.625415E-04   1.625522E-04   1.625629E-04   1.625735E-04   1.625840E-04   1.625942E-04   1.626042E-04   1.626139E-04   1.626233E-04   1.626323E-04   1.626408E-04   1.626488E-04   1.626563E-04   1.626633E-04   1.626696E-04   1.626752E-04   1.626801E-04   1.626842E-04   1.626875E-04   1.626899E-04   1.626914E-04   1.626920E-04   1.626916E-04   1.626901E-04   1.626876E-04   1.626840E-04   1.626792E-04   1.626733E-04   1.626662E-04   1.626578E-04   1.626482E-04   1.626373E-04   1.626250E-04   1.626115E-04   1.625967E-04   1.625804E-04   1.625628E-04   1.625438E-04   1.625235E-04   1.625017E-04   1.624785E-04   1.736974E-04   1.735305E-04   1.734515E-04   1.735371E-04   1.735813E-04   1.736041E-04   1.735723E-04   1.735391E-04   1.735047E-04   1.734469E-04   1.733605E-04   1.733186E-04   1.732791E-04   1.732383E-04   1.731964E-04   1.731533E-04   1.730973E-04   1.730382E-04   1.730172E-04   1.729697E-04   1.729101E-04   1.728144E-04   1.727366E-04   1.727329E-04   1.726922E-04   1.726615E-04   1.726091E-04   1.725196E-04   1.724111E-04   1.724031E-04   1.723368E-04   1.722398E-04   1.721674E-04   1.721339E-04   1.720748E-04   1.719915E-04   1.718829E-04   1.718272E-04   1.717776E-04   1.717225E-04   1.717135E-04   1.716030E-04   1.715481E-04   1.714944E-04   1.713975E-04   1.712826E-04   1.711362E-04   1.709804E-04   1.709163E-04   1.709271E-04   1.708448E-04   1.709375E-04   1.709536E-04   1.708890E-04   1.708217E-04   1.707542E-04   1.706777E-04   1.705732E-04   1.704795E-04   1.704147E-04   1.703618E-04   1.703297E-04   1.703018E-04   1.702604E-04   1.701962E-04   1.701304E-04   1.700647E-04   1.699991E-04   1.699338E-04   1.698687E-04   1.698038E-04   1.697265E-04   1.696244E-04   1.695266E-04   1.694256E-04   1.693260E-04   1.692378E-04   1.691712E-04   1.691085E-04   1.690469E-04   1.689752E-04   1.688983E-04   1.688699E-04   1.688573E-04   1.688601E-04   1.688393E-04   1.688052E-04   1.687458E-04   1.686978E-04   1.686882E-04   1.571805E-04   1.571207E-04   1.570613E-04   1.570023E-04   1.569438E-04   1.568857E-04   1.568281E-04   1.567709E-04   1.567142E-04   1.566579E-04   1.566020E-04   1.565467E-04   1.564917E-04   1.564373E-04   1.563833E-04   1.563298E-04   1.562767E-04   1.562241E-04   1.561720E-04   1.561203E-04   1.560691E-04   1.560184E-04   1.559681E-04   1.559183E-04   1.558690E-04   1.558201E-04   1.557717E-04   1.557237E-04   1.556762E-04   1.556292E-04   1.555826E-04   1.555366E-04   1.554909E-04   1.554457E-04   1.554010E-04   1.553567E-04   1.553129E-04   1.552695E-04
            NAN            NAN            NAN            NAN            NAN            NAN            NAN            NAN            NAN            NAN            NAN            NAN            NAN            NAN            NAN            NAN            NAN            NAN            NAN            NAN            NAN            NAN            NAN            NAN            NAN            NAN            NAN            NAN            NAN            NAN            NAN            NAN            NAN            NAN            NAN            NAN            NAN            NAN            NAN            NAN            NAN            NAN            NAN            NAN            NAN            NAN            NAN            NAN            NAN            NAN            NAN            NAN            NAN            NAN            NAN            NAN            NAN            NAN            NAN            NAN            NAN            NAN            NAN            NAN            NAN            NAN            NAN            NAN            NAN            NAN            NAN            NAN            NAN            NAN            NAN            NAN            NAN            NAN            NAN            NAN            NAN            NAN            NAN            NAN            NAN            NAN            NAN            NAN            NAN            NAN            NAN            NAN            NAN            NAN            NAN            NAN            NAN            NAN            NAN            NAN            NAN            NAN            NAN            NAN            NAN            NAN            NAN            NAN            NAN            NAN            NAN            NAN            NAN            NAN            NAN            NAN            NAN            NAN            NAN            NAN            NAN            NAN            NAN            NAN            NAN            NAN            NAN            NAN            NAN            NAN            NAN            NAN            NAN            NAN            NAN            NAN            NAN            NAN            NAN            NAN            NAN            NAN            NAN            NAN            NAN            NAN            NAN            NAN            NAN            NAN            NAN            NAN            NAN            NAN            NAN            NAN            NAN            NAN            NAN            NAN            NAN            NAN            NAN            NAN            NAN            NAN            NAN            NAN            NAN            NAN            NAN            NAN            NAN            NAN            NAN            NAN            NAN            NAN            NAN            NAN            NAN            NAN            NAN            NAN            NAN            NAN            NAN            NAN            NAN            NAN            NAN            NAN            NAN            NAN            NAN            NAN            NAN            NAN            NAN            NAN            NAN            NAN            NAN            NAN            NAN            NAN            NAN            NAN            NAN            NAN            NAN            NAN            NAN            NAN            NAN            NAN            NAN            NAN            NAN            NAN            NAN            NAN            NAN            NAN            NAN            NAN            NAN            NAN            NAN            NAN            NAN            NAN            NAN            NAN            NAN            NAN            NAN            NAN            NAN            NAN            NAN            NAN            NAN            NAN            NAN            NAN            NAN            NAN            NAN            NAN            NAN            NAN            NAN            NAN            NAN            NAN            NAN            NAN            NAN            NAN            NAN            NAN   1.645474E-04   1.645576E-04   1.645673E-04   1.645765E-04   1.645853E-04   1.645936E-04   1.646015E-04   1.646091E-04   1.646164E-04   1.646234E-04   1.646302E-04   1.646367E-04   1.646432E-04   1.646495E-04   1.646557E-04   1.646619E-04   1.646681E-04   1.646744E-04   1.646807E-04   1.646871E-04   1.646937E-04   1.647005E-04   1.647075E-04   1.647147E-04   1.624487E-04   1.624517E-04   1.624551E-04   1.624589E-04   1.624630E-04   1.624674E-04   1.624722E-04   1.624775E-04   1.624831E-04   1.624891E-04   1.624956E-04   1.625024E-04   1.625097E-04   1.625174E-04   1.625254E-04   1.625339E-04   1.625427E-04   1.625519E-04   1.625614E-04   1.625713E-04   1.625814E-04   1.625919E-04   1.626025E-04   1.626134E-04   1.626245E-04   1.626357E-04   1.626471E-04   1.626585E-04   1.626699E-04   1.626813E-04   1.626927E-04   1.627040E-04   1.627152E-04   1.627261E-04   1.627368E-04   1.627473E-04   1.627573E-04   1.627670E-04   1.627763E-04   1.627850E-04   1.627933E-04   1.628009E-04   1.628079E-04   1.628142E-04   1.628197E-04   1.628244E-04   1.628283E-04   1.628313E-04   1.628334E-04   1.628345E-04   1.628346E-04   1.628337E-04   1.628316E-04   1.628283E-04   1.628239E-04   1.628183E-04   1.628115E-04   1.628033E-04   1.627939E-04   1.627832E-04   1.627711E-04   1.627576E-04   1.627428E-04   1.627265E-04   1.627088E-04   1.626897E-04   1.626692E-04   1.626472E-04   1.626238E-04   1.738468E-04   1.737613E-04   1.737670E-04   1.737131E-04   1.736544E-04   1.736467E-04   1.737096E-04   1.736758E-04   1.736407E-04   1.735806E-04   1.734916E-04   1.734416E-04   1.733885E-04   1.733597E-04   1.733042E-04   1.732838E-04   1.732269E-04   1.731560E-04   1.731212E-04   1.730963E-04   1.730458E-04   1.729807E-04   1.729034E-04   1.728543E-04   1.728015E-04   1.727380E-04   1.726482E-04   1.725660E-04   1.725374E-04   1.725539E-04   1.724617E-04   1.723292E-04   1.722681E-04   1.722199E-04   1.721711E-04   1.720841E-04   1.720179E-04   1.719449E-04   1.718590E-04   1.718170E-04   1.718030E-04   1.717453E-04   1.716935E-04   1.715945E-04   1.714703E-04   1.713102E-04   1.711611E-04   1.710408E-04   1.710815E-04   1.711698E-04   1.711355E-04   1.711032E-04   1.710411E-04   1.709735E-04   1.709058E-04   1.708380E-04   1.707476E-04   1.706193E-04   1.705264E-04   1.704694E-04   1.704476E-04   1.704300E-04   1.703762E-04   1.703346E-04   1.702674E-04   1.702005E-04   1.701336E-04   1.700670E-04   1.700006E-04   1.699344E-04   1.698684E-04   1.697908E-04   1.696878E-04   1.695745E-04   1.694708E-04   1.694054E-04   1.692926E-04   1.692286E-04   1.691649E-04   1.691016E-04   1.690378E-04   1.689849E-04   1.689701E-04   1.689808E-04   1.689716E-04   1.689132E-04   1.688544E-04   1.687941E-04   1.687683E-04   1.687855E-04   1.572279E-04   1.571672E-04   1.571070E-04   1.570472E-04   1.569879E-04   1.569290E-04   1.568706E-04   1.568127E-04   1.567552E-04   1.566982E-04   1.566416E-04   1.565856E-04   1.565299E-04   1.564748E-04   1.564201E-04   1.563659E-04   1.563122E-04   1.562590E-04   1.562062E-04   1.561539E-04   1.561021E-04   1.560508E-04   1.559999E-04   1.559496E-04   1.558997E-04   1.558502E-04   1.558013E-04   1.557528E-04   1.557048E-04   1.556572E-04   1.556102E-04   1.555636E-04   1.555174E-04   1.554717E-04   1.554265E-04   1.553818E-04   1.553375E-04   1.552936E-04
            NAN            NAN            NAN            NAN            NAN            NAN            NAN            NAN            NAN            NAN            NAN            NAN            NAN            NAN            NAN            NAN            NAN            NAN            NAN            NAN            NAN            NAN            NAN            NAN            NAN            NAN            NAN            NAN            NAN            NAN            NAN            NAN            NAN            NAN            NAN            NAN            NAN            NAN            NAN            NAN            NAN            NAN            NAN            NAN            NAN            NAN            NAN            NAN            NAN            NAN            NAN            NAN            NAN            NAN            NAN            NAN            NAN            NAN            NAN            NAN            NAN            NAN            NAN            NAN            NAN            NAN            NAN            NAN            NAN            NAN            NAN            NAN            NAN            NAN            NAN            NAN            NAN            NAN            NAN            NAN            NAN            NAN            NAN            NAN            NAN            NAN            NAN            NAN            NAN            NAN            NAN            NAN            NAN            NAN            NAN            NAN            NAN            NAN            NAN            NAN            NAN            NAN            NAN            NAN            NAN            NAN            NAN            NAN            NAN            NAN            NAN            NAN            NAN            NAN            NAN            NAN            NAN            NAN            NAN            NAN            NAN            NAN            NAN            NAN            NAN            NAN            NAN            NAN            NAN            NAN            NAN            NAN            NAN            NAN            NAN            NAN            NAN            NAN            NAN            NAN            NAN            NAN            NAN            NAN            NAN            NAN            NAN            NAN            NAN            NAN            NAN            NAN            NAN            NAN            NAN            NAN            NAN            NAN            NAN            NAN            NAN            NAN            NAN            NAN            NAN            NAN            NAN            NAN            NAN            NAN            NAN            NAN            NAN            NAN            NAN            NAN            NAN            NAN            NAN            NAN            NAN            NAN            NAN            NAN            NAN            NAN            NAN            NAN            NAN            NAN            NAN            NAN            NAN            NAN            NAN            NAN            NAN            NAN            NAN            NAN            NAN            NAN            NAN            NAN            NAN            NAN            NAN            NAN            NAN            NAN            NAN            NAN            NAN            NAN            NAN            NAN            NAN            NAN            NAN            NAN            NAN            NAN            NAN            NAN            NAN            NAN            NAN            NAN            NAN            NAN            NAN            NAN            NAN            NAN            NAN            NAN            NAN            NAN            NAN            NAN            NAN            NAN            NAN            NAN            NAN            NAN            NAN            NAN            NAN            NAN            NAN            NAN            NAN            NAN            NAN            NAN            NAN            NAN            NAN            NAN            NAN   1.646496E-04   1.646600E-04   1.646699E-04   1.646792E-04   1.646880E-04   1.646963E-04   1.647042E-04   1.647117E-04   1.647188E-04   1.647256E-04   1.647322E-04   1.647384E-04   1.647445E-04   1.647505E-04   1.647563E-04   1.647621E-04   1.647679E-04   1.647736E-04   1.647794E-04   1.647854E-04   1.647914E-04   1.647976E-04   1.648040E-04   1.648107E-04   1.648176E-04   1.625720E-04   1.625748E-04   1.625780E-04   1.625815E-04   1.625855E-04   1.625898E-04   1.625945E-04   1.625997E-04   1.626053E-04   1.626114E-04   1.626179E-04   1.626248E-04   1.626322E-04   1.626401E-04   1.626484E-04   1.626571E-04   1.626662E-04   1.626757E-04   1.626856E-04   1.626959E-04   1.627065E-04   1.627174E-04   1.627285E-04   1.627399E-04   1.627516E-04   1.627634E-04   1.627754E-04   1.627874E-04   1.627995E-04   1.628116E-04   1.628237E-04   1.628357E-04   1.628476E-04   1.628593E-04   1.628708E-04   1.628820E-04   1.628928E-04   1.629033E-04   1.629133E-04   1.629228E-04   1.629318E-04   1.629401E-04   1.629479E-04   1.629548E-04   1.629611E-04   1.629665E-04   1.629711E-04   1.629747E-04   1.629774E-04   1.629790E-04   1.629796E-04   1.629792E-04   1.629775E-04   1.629747E-04   1.629707E-04   1.629655E-04   1.629589E-04   1.629510E-04   1.629418E-04   1.629312E-04   1.629193E-04   1.629059E-04   1.628910E-04   1.628747E-04   1.628570E-04   1.628378E-04   1.628171E-04   1.627949E-04   1.627711E-04   1.740008E-04   1.739127E-04   1.738539E-04   1.737991E-04   1.737878E-04   1.738049E-04   1.738011E-04   1.738035E-04   1.737329E-04   1.736703E-04   1.736282E-04   1.735875E-04   1.735454E-04   1.735039E-04   1.734484E-04   1.733925E-04   1.733583E-04   1.732964E-04   1.732724E-04   1.732137E-04   1.731502E-04   1.731212E-04   1.730666E-04   1.730127E-04   1.729579E-04   1.729014E-04   1.728311E-04   1.727482E-04   1.727032E-04   1.726732E-04   1.725889E-04   1.724541E-04   1.723568E-04   1.723188E-04   1.722571E-04   1.721920E-04   1.721281E-04   1.720628E-04   1.720176E-04   1.719900E-04   1.718934E-04   1.718046E-04   1.717389E-04   1.716585E-04   1.715317E-04   1.713675E-04   1.712278E-04   1.711525E-04   1.712354E-04   1.713056E-04   1.712633E-04   1.711963E-04   1.711166E-04   1.710349E-04   1.709896E-04   1.709205E-04   1.708498E-04   1.707328E-04   1.705900E-04   1.705794E-04   1.705484E-04   1.705179E-04   1.704740E-04   1.704074E-04   1.703391E-04   1.702709E-04   1.702029E-04   1.701352E-04   1.700676E-04   1.700003E-04   1.699223E-04   1.698198E-04   1.697051E-04   1.695777E-04   1.695071E-04   1.694668E-04   1.693619E-04   1.693095E-04   1.692109E-04   1.691341E-04   1.690933E-04   1.690413E-04   1.690372E-04   1.690619E-04   1.690272E-04   1.689652E-04   1.689036E-04   1.688757E-04   1.688906E-04   1.573372E-04   1.572753E-04   1.572138E-04   1.571528E-04   1.570922E-04   1.570321E-04   1.569724E-04   1.569132E-04   1.568545E-04   1.567963E-04   1.567385E-04   1.566812E-04   1.566244E-04   1.565681E-04   1.565123E-04   1.564570E-04   1.564021E-04   1.563477E-04   1.562938E-04   1.562405E-04   1.561875E-04   1.561351E-04   1.560832E-04   1.560317E-04   1.559808E-04   1.559303E-04   1.558803E-04   1.558308E-04   1.557818E-04   1.557333E-04   1.556852E-04   1.556376E-04   1.555905E-04   1.555439E-04   1.554977E-04   1.554520E-04   1.554068E-04   1.553621E-04   1.553178E-04